/*--------------------------------*- C++ -*----------------------------------*\
| =========                 |                                                 |
| \\      /  F ield         | OpenFOAM: The Open Source CFD Toolbox           |
|  \\    /   O peration     | Version:  2.3.0                                 |
|   \\  /    A nd           | Web:      www.OpenFOAM.org                      |
|    \\/     M anipulation  |                                                 |
\*---------------------------------------------------------------------------*/
FoamFile
{
    version     2.0;
    format      ascii;
    class       polyBoundaryMesh;
    location    "constant/polyMesh";
    object      boundary;
}
// * * * * * * * * * * * * * * * * * * * * * * * * * * * * * * * * * * * * * //

6
(
    topAndBottom
    {
        type            patch;
        nFaces          132;
        startFace       187698;
    }
    inlet
    {
        type            patch;
        nFaces          30;
        startFace       187830;
    }
    outlet
    {
        type            patch;
        nFaces          12;
        startFace       187860;
    }
    symFront
    {
        type            symmetryPlane;
        inGroups        1(symmetryPlane);
        nFaces          5184;
        startFace       187872;
    }
    symBack
    {
        type            symmetryPlane;
        inGroups        1(symmetryPlane);
        nFaces          5184;
        startFace       193056;
    }
    wing
    {
        type            wall;
        inGroups        1(wall);
        nFaces          3200;
        startFace       198240;
    }
)

// ************************************************************************* //
