/*--------------------------------*- C++ -*----------------------------------*\
| =========                 |                                                 |
| \\      /  F ield         | OpenFOAM: The Open Source CFD Toolbox           |
|  \\    /   O peration     | Version:  2.3.x                                 |
|   \\  /    A nd           | Web:      www.OpenFOAM.org                      |
|    \\/     M anipulation  |                                                 |
\*---------------------------------------------------------------------------*/
FoamFile
{
    version     2.0;
    format      ascii;
    class       polyBoundaryMesh;
    location    "constant/polyMesh";
    object      boundary;
}
// * * * * * * * * * * * * * * * * * * * * * * * * * * * * * * * * * * * * * //

7
(
    top
    {
        type            patch;
        nFaces          80;
        startFace       4546050;
    }
    bottom
    {
        type            patch;
        nFaces          80;
        startFace       4546130;
    }
    inlet
    {
        type            patch;
        nFaces          194;
        startFace       4546210;
    }
    outlet
    {
        type            patch;
        nFaces          194;
        startFace       4546404;
    }
    symFront
    {
        type            symmetryPlane;
        inGroups        1(symmetryPlane);
        nFaces          28424;
        startFace       4546598;
    }
    symBack
    {
        type            symmetryPlane;
        inGroups        1(symmetryPlane);
        nFaces          28424;
        startFace       4575022;
    }
    wing
    {
        type            wall;
        inGroups        1(wall);
        nFaces          109056;
        startFace       4603446;
    }
)

// ************************************************************************* //
